# Name file for MT3DMS, generated by Flopy version 3.2.10.
LIST              16  p03_mt.list
FTL               10  mt3d_link.ftl 
BTN               31  p03_mt.btn 
ADV               32  p03_mt.adv 
DSP               33  p03_mt.dsp 
SSM               34  p03_mt.ssm 
GCG               35  p03_mt.gcg 
