# Name file for MODFLOW-2005, generated by Flopy version 3.2.10.
#xul:0; yul:310; rotation:0; proj4_str:+init=EPSG:31985; units:meters; lenuni:2; length_multiplier:1.0 ;start_datetime:1-1-1970
LIST               2  p03_mf.list
DIS               11  p03_mf.dis 
BAS6              13  p03_mf.bas 
LPF               15  p03_mf.lpf 
WEL               20  p03_mf.wel 
PCG               27  p03_mf.pcg 
LMT6              30  p03_mf.lmt6 
