# DIS package for  MODFLOW-2005, generated by Flopy.
         1        31        46         1         4         2
  0
CONSTANT    1.002929E+01                           #delr                          
CONSTANT    1.013367E+01                           #delc                          
CONSTANT    1.000000E+01                           #model_top                     
CONSTANT    0.000000E+00                           #botm layer 1                  
    365.000000             1  1.000000  SS 
