# Name file for MT3DMS, generated by Flopy version 3.2.10.
LIST              16  p05_mt.list
FTL               10  mt3d_link.ftl 
BTN               31  p05_mt.btn 
ADV               32  p05_mt.adv 
DSP               33  p05_mt.dsp 
SSM               34  p05_mt.ssm 
GCG               35  p05_mt.gcg 
