# DIS package for  MODFLOW-2005, generated by Flopy.
         1        10        10         1         4         2
  0
CONSTANT    1.004460E+02                           #delr                          
CONSTANT    1.011000E+02                           #delc                          
CONSTANT    5.000000E+01                           #model_top                     
CONSTANT    0.000000E+00                           #botm layer 1                  
      1.000000             1  1.000000  SS 
