# BAS6 package for  MODFLOW-2005, generated by Flopy.
FREE
INTERNAL               1    (10I10) -1 #ibound layer 1                
         1         1         1         1         1         1         1         1         1         1
         1         1         1         1         1         1         1         1         1         1
         1         1         1         1         1         1         1         1         1         1
         1         1         1         1         1         1         1         1         1         1
         1         1         1         1         1         1         1         1         1         1
         1         1         1         1         1         1         1         1         1         1
         1         1         1         1         1         1         1         1         1         1
         1         1         1         1         1         1         1         1         1         1
         1         1         1         1         1         1         1         1         1         1
         1         1         1         1         1         1         1         1         1         1
   -999.99
INTERNAL               1  (10E15.6) -1 #strt layer 1                  
   6.000000E+01   6.000000E+01   6.000000E+01   6.000000E+01   6.000000E+01   6.000000E+01   6.000000E+01   6.000000E+01   6.000000E+01   6.000000E+01
   6.000000E+01   6.000000E+01   6.000000E+01   6.000000E+01   6.000000E+01   6.000000E+01   6.000000E+01   6.000000E+01   6.000000E+01   6.000000E+01
   6.000000E+01   6.000000E+01   6.000000E+01   6.000000E+01   6.000000E+01   6.000000E+01   6.000000E+01   6.000000E+01   6.000000E+01   6.000000E+01
   6.000000E+01   6.000000E+01   6.000000E+01   6.000000E+01   6.000000E+01   6.000000E+01   6.000000E+01   6.000000E+01   6.000000E+01   6.000000E+01
   6.000000E+01   6.000000E+01   6.000000E+01   6.000000E+01   6.000000E+01   6.000000E+01   6.000000E+01   6.000000E+01   6.000000E+01   6.000000E+01
   6.000000E+01   6.000000E+01   6.000000E+01   6.000000E+01   6.000000E+01   6.000000E+01   6.000000E+01   6.000000E+01   6.000000E+01   6.000000E+01
   6.000000E+01   6.000000E+01   6.000000E+01   6.000000E+01   6.000000E+01   6.000000E+01   6.000000E+01   6.000000E+01   6.000000E+01   6.000000E+01
   6.000000E+01   6.000000E+01   6.000000E+01   6.000000E+01   6.000000E+01   6.000000E+01   6.000000E+01   6.000000E+01   6.000000E+01   6.000000E+01
   6.000000E+01   6.000000E+01   6.000000E+01   6.000000E+01   6.000000E+01   6.000000E+01   6.000000E+01   6.000000E+01   6.000000E+01   6.000000E+01
   6.000000E+01   6.000000E+01   6.000000E+01   6.000000E+01   6.000000E+01   6.000000E+01   6.000000E+01   6.000000E+01   6.000000E+01   6.000000E+01
