# GHB package for  MODFLOW-2005, generated by Flopy.
        20         0
        20         0 # stress period 1
         1         1         1            60.0        6066.024
         1         1        10            60.0        6066.024
         1         2         1            60.0        6066.024
         1         2        10            60.0        6066.024
         1         3         1            60.0        6066.024
         1         3        10            60.0        6066.024
         1         4         1            60.0        6066.024
         1         4        10            60.0        6066.024
         1         5         1            60.0        6066.024
         1         5        10            60.0        6066.024
         1         6         1            60.0        6066.024
         1         6        10            60.0        6066.024
         1         7         1            60.0        6066.024
         1         7        10            60.0        6066.024
         1         8         1            60.0        6066.024
         1         8        10            60.0        6066.024
         1         9         1            60.0        6066.024
         1         9        10            60.0        6066.024
         1        10         1            60.0        6066.024
         1        10        10            60.0        6066.024
        20         0 # stress period 2
         1         1         1            60.0        6066.024
         1         1        10            50.0         5055.02
         1         2         1            60.0        6066.024
         1         2        10            50.0         5055.02
         1         3         1            60.0        6066.024
         1         3        10            50.0         5055.02
         1         4         1            60.0        6066.024
         1         4        10            50.0         5055.02
         1         5         1            60.0        6066.024
         1         5        10            50.0         5055.02
         1         6         1            60.0        6066.024
         1         6        10            50.0         5055.02
         1         7         1            60.0        6066.024
         1         7        10            50.0         5055.02
         1         8         1            60.0        6066.024
         1         8        10            50.0         5055.02
         1         9         1            60.0        6066.024
         1         9        10            50.0         5055.02
         1        10         1            60.0        6066.024
         1        10        10            50.0         5055.02
        -1         0 # stress period 3
