# DIS package for  MODFLOW-2005, generated by Flopy.
         1        10        10         3         4         2
  0
CONSTANT    1.004456E+02                           #delr                          
CONSTANT    1.011004E+02                           #delc                          
CONSTANT    5.000000E+01                           #model_top                     
CONSTANT    0.000000E+00                           #botm layer 1                  
      1.000000             1  1.000000  SS 
    100.000000             1  1.000000  TR 
    100.000000             1  1.000000  TR 
