# DIS package for  MODFLOW-2005, generated by Flopy.
         5        10        10         5         4         2
  0  0  0  0  0
CONSTANT    1.000000E+01                           #delr                          
CONSTANT    1.000000E+01                           #delc                          
CONSTANT    5.000000E+01                           #model_top                     
CONSTANT    4.700000E+01                           #botm layer 1                  
CONSTANT    3.000000E+01                           #botm layer 2                  
CONSTANT    2.000000E+01                           #botm layer 3                  
CONSTANT    1.000000E+01                           #botm layer 4                  
CONSTANT    0.000000E+00                           #botm layer 5                  
      1.000000             1  1.000000  SS 
      1.000000             1  1.000000  TR 
      1.000000             1  1.000000  TR 
      1.000000             1  1.000000  TR 
      1.000000             1  1.000000  TR 
