# BAS6 package for  MODFLOW-2005, generated by Flopy.
FREE
INTERNAL               1    (10I10) -1 #ibound layer 1                
        -1         1         1         1         1         1         1         1         1        -1
        -1         1         1         1         1         1         1         1         1        -1
        -1         1         1         1         1         1         1         1         1        -1
        -1         1         1         1         1         1         1         1         1        -1
        -1         1         1         1         1         1         1         1         1        -1
        -1         1         1         1         1         1         1         1         1        -1
        -1         1         1         1         1         1         1         1         1        -1
        -1         1         1         1         1         1         1         1         1        -1
        -1         1         1         1         1         1         1         1         1        -1
        -1         1         1         1         1         1         1         1         1        -1
INTERNAL               1    (10I10) -1 #ibound layer 2                
         1         1         1         1         1         1         1         1         1         1
         1         1         1         1         1         1         1         1         1         1
         1         1         1         1         1         1         1         1         1         1
         1         1         1         1         1         1         1         1         1         1
         1         1         1         1         1         1         1         1         1         1
         1         1         1         1         1         1         1         1         1         1
         1         1         1         1         1         1         1         1         1         1
         1         1         1         1         1         1         1         1         1         1
         1         1         1         1         1         1         1         1         1         1
         1         1         1         1         1         1         1         1         1         1
INTERNAL               1    (10I10) -1 #ibound layer 3                
         1         1         1         1         1         1         1         1         1         1
         1         1         1         1         1         1         1         1         1         1
         1         1         1         1         1         1         1         1         1         1
         1         1         1         1         1         1         1         1         1         1
         1         1         1         1         1         1         1         1         1         1
         1         1         1         1         1         1         1         1         1         1
         1         1         1         1         1         1         1         1         1         1
         1         1         1         1         1         1         1         1         1         1
         1         1         1         1         1         1         1         1         1         1
         1         1         1         1         1         1         1         1         1         1
INTERNAL               1    (10I10) -1 #ibound layer 4                
         1         1         1         1         1         1         1         1         1         1
         1         1         1         1         1         1         1         1         1         1
         1         1         1         1         1         1         1         1         1         1
         1         1         1         1         1         1         1         1         1         1
         1         1         1         1         1         1         1         1         1         1
         1         1         1         1         1         1         1         1         1         1
         1         1         1         1         1         1         1         1         1         1
         1         1         1         1         1         1         1         1         1         1
         1         1         1         1         1         1         1         1         1         1
         1         1         1         1         1         1         1         1         1         1
INTERNAL               1    (10I10) -1 #ibound layer 5                
         1         1         1         1         1         1         1         1         1         1
         1         1         1         1         1         1         1         1         1         1
         1         1         1         1         1         1         1         1         1         1
         1         1         1         1         1         1         1         1         1         1
         1         1         1         1         1         1         1         1         1         1
         1         1         1         1         1         1         1         1         1         1
         1         1         1         1         1         1         1         1         1         1
         1         1         1         1         1         1         1         1         1         1
         1         1         1         1         1         1         1         1         1         1
         1         1         1         1         1         1         1         1         1         1
   -999.99
INTERNAL               1  (10E15.6) -1 #strt layer 1                  
   4.800000E+01   4.800000E+01   4.800000E+01   4.800000E+01   4.800000E+01   4.800000E+01   4.800000E+01   4.800000E+01   4.800000E+01   4.800000E+01
   4.800000E+01   4.800000E+01   4.800000E+01   4.800000E+01   4.800000E+01   4.800000E+01   4.800000E+01   4.800000E+01   4.800000E+01   4.800000E+01
   4.800000E+01   4.800000E+01   4.800000E+01   4.800000E+01   4.800000E+01   4.800000E+01   4.800000E+01   4.800000E+01   4.800000E+01   4.800000E+01
   4.800000E+01   4.800000E+01   4.800000E+01   4.800000E+01   4.800000E+01   4.800000E+01   4.800000E+01   4.800000E+01   4.800000E+01   4.800000E+01
   4.800000E+01   4.800000E+01   4.800000E+01   4.800000E+01   4.800000E+01   4.800000E+01   4.800000E+01   4.800000E+01   4.800000E+01   4.800000E+01
   4.800000E+01   4.800000E+01   4.800000E+01   4.800000E+01   4.800000E+01   4.800000E+01   4.800000E+01   4.800000E+01   4.800000E+01   4.800000E+01
   4.800000E+01   4.800000E+01   4.800000E+01   4.800000E+01   4.800000E+01   4.800000E+01   4.800000E+01   4.800000E+01   4.800000E+01   4.800000E+01
   4.800000E+01   4.800000E+01   4.800000E+01   4.800000E+01   4.800000E+01   4.800000E+01   4.800000E+01   4.800000E+01   4.800000E+01   4.800000E+01
   4.800000E+01   4.800000E+01   4.800000E+01   4.800000E+01   4.800000E+01   4.800000E+01   4.800000E+01   4.800000E+01   4.800000E+01   4.800000E+01
   4.800000E+01   4.800000E+01   4.800000E+01   4.800000E+01   4.800000E+01   4.800000E+01   4.800000E+01   4.800000E+01   4.800000E+01   4.800000E+01
INTERNAL               1  (10E15.6) -1 #strt layer 2                  
   4.800000E+01   4.800000E+01   4.800000E+01   4.800000E+01   4.800000E+01   4.800000E+01   4.800000E+01   4.800000E+01   4.800000E+01   4.800000E+01
   4.800000E+01   4.800000E+01   4.800000E+01   4.800000E+01   4.800000E+01   4.800000E+01   4.800000E+01   4.800000E+01   4.800000E+01   4.800000E+01
   4.800000E+01   4.800000E+01   4.800000E+01   4.800000E+01   4.800000E+01   4.800000E+01   4.800000E+01   4.800000E+01   4.800000E+01   4.800000E+01
   4.800000E+01   4.800000E+01   4.800000E+01   4.800000E+01   4.800000E+01   4.800000E+01   4.800000E+01   4.800000E+01   4.800000E+01   4.800000E+01
   4.800000E+01   4.800000E+01   4.800000E+01   4.800000E+01   4.800000E+01   4.800000E+01   4.800000E+01   4.800000E+01   4.800000E+01   4.800000E+01
   4.800000E+01   4.800000E+01   4.800000E+01   4.800000E+01   4.800000E+01   4.800000E+01   4.800000E+01   4.800000E+01   4.800000E+01   4.800000E+01
   4.800000E+01   4.800000E+01   4.800000E+01   4.800000E+01   4.800000E+01   4.800000E+01   4.800000E+01   4.800000E+01   4.800000E+01   4.800000E+01
   4.800000E+01   4.800000E+01   4.800000E+01   4.800000E+01   4.800000E+01   4.800000E+01   4.800000E+01   4.800000E+01   4.800000E+01   4.800000E+01
   4.800000E+01   4.800000E+01   4.800000E+01   4.800000E+01   4.800000E+01   4.800000E+01   4.800000E+01   4.800000E+01   4.800000E+01   4.800000E+01
   4.800000E+01   4.800000E+01   4.800000E+01   4.800000E+01   4.800000E+01   4.800000E+01   4.800000E+01   4.800000E+01   4.800000E+01   4.800000E+01
INTERNAL               1  (10E15.6) -1 #strt layer 3                  
   4.800000E+01   4.800000E+01   4.800000E+01   4.800000E+01   4.800000E+01   4.800000E+01   4.800000E+01   4.800000E+01   4.800000E+01   4.800000E+01
   4.800000E+01   4.800000E+01   4.800000E+01   4.800000E+01   4.800000E+01   4.800000E+01   4.800000E+01   4.800000E+01   4.800000E+01   4.800000E+01
   4.800000E+01   4.800000E+01   4.800000E+01   4.800000E+01   4.800000E+01   4.800000E+01   4.800000E+01   4.800000E+01   4.800000E+01   4.800000E+01
   4.800000E+01   4.800000E+01   4.800000E+01   4.800000E+01   4.800000E+01   4.800000E+01   4.800000E+01   4.800000E+01   4.800000E+01   4.800000E+01
   4.800000E+01   4.800000E+01   4.800000E+01   4.800000E+01   4.800000E+01   4.800000E+01   4.800000E+01   4.800000E+01   4.800000E+01   4.800000E+01
   4.800000E+01   4.800000E+01   4.800000E+01   4.800000E+01   4.800000E+01   4.800000E+01   4.800000E+01   4.800000E+01   4.800000E+01   4.800000E+01
   4.800000E+01   4.800000E+01   4.800000E+01   4.800000E+01   4.800000E+01   4.800000E+01   4.800000E+01   4.800000E+01   4.800000E+01   4.800000E+01
   4.800000E+01   4.800000E+01   4.800000E+01   4.800000E+01   4.800000E+01   4.800000E+01   4.800000E+01   4.800000E+01   4.800000E+01   4.800000E+01
   4.800000E+01   4.800000E+01   4.800000E+01   4.800000E+01   4.800000E+01   4.800000E+01   4.800000E+01   4.800000E+01   4.800000E+01   4.800000E+01
   4.800000E+01   4.800000E+01   4.800000E+01   4.800000E+01   4.800000E+01   4.800000E+01   4.800000E+01   4.800000E+01   4.800000E+01   4.800000E+01
INTERNAL               1  (10E15.6) -1 #strt layer 4                  
   4.800000E+01   4.800000E+01   4.800000E+01   4.800000E+01   4.800000E+01   4.800000E+01   4.800000E+01   4.800000E+01   4.800000E+01   4.800000E+01
   4.800000E+01   4.800000E+01   4.800000E+01   4.800000E+01   4.800000E+01   4.800000E+01   4.800000E+01   4.800000E+01   4.800000E+01   4.800000E+01
   4.800000E+01   4.800000E+01   4.800000E+01   4.800000E+01   4.800000E+01   4.800000E+01   4.800000E+01   4.800000E+01   4.800000E+01   4.800000E+01
   4.800000E+01   4.800000E+01   4.800000E+01   4.800000E+01   4.800000E+01   4.800000E+01   4.800000E+01   4.800000E+01   4.800000E+01   4.800000E+01
   4.800000E+01   4.800000E+01   4.800000E+01   4.800000E+01   4.800000E+01   4.800000E+01   4.800000E+01   4.800000E+01   4.800000E+01   4.800000E+01
   4.800000E+01   4.800000E+01   4.800000E+01   4.800000E+01   4.800000E+01   4.800000E+01   4.800000E+01   4.800000E+01   4.800000E+01   4.800000E+01
   4.800000E+01   4.800000E+01   4.800000E+01   4.800000E+01   4.800000E+01   4.800000E+01   4.800000E+01   4.800000E+01   4.800000E+01   4.800000E+01
   4.800000E+01   4.800000E+01   4.800000E+01   4.800000E+01   4.800000E+01   4.800000E+01   4.800000E+01   4.800000E+01   4.800000E+01   4.800000E+01
   4.800000E+01   4.800000E+01   4.800000E+01   4.800000E+01   4.800000E+01   4.800000E+01   4.800000E+01   4.800000E+01   4.800000E+01   4.800000E+01
   4.800000E+01   4.800000E+01   4.800000E+01   4.800000E+01   4.800000E+01   4.800000E+01   4.800000E+01   4.800000E+01   4.800000E+01   4.800000E+01
INTERNAL               1  (10E15.6) -1 #strt layer 5                  
   4.800000E+01   4.800000E+01   4.800000E+01   4.800000E+01   4.800000E+01   4.800000E+01   4.800000E+01   4.800000E+01   4.800000E+01   4.800000E+01
   4.800000E+01   4.800000E+01   4.800000E+01   4.800000E+01   4.800000E+01   4.800000E+01   4.800000E+01   4.800000E+01   4.800000E+01   4.800000E+01
   4.800000E+01   4.800000E+01   4.800000E+01   4.800000E+01   4.800000E+01   4.800000E+01   4.800000E+01   4.800000E+01   4.800000E+01   4.800000E+01
   4.800000E+01   4.800000E+01   4.800000E+01   4.800000E+01   4.800000E+01   4.800000E+01   4.800000E+01   4.800000E+01   4.800000E+01   4.800000E+01
   4.800000E+01   4.800000E+01   4.800000E+01   4.800000E+01   4.800000E+01   4.800000E+01   4.800000E+01   4.800000E+01   4.800000E+01   4.800000E+01
   4.800000E+01   4.800000E+01   4.800000E+01   4.800000E+01   4.800000E+01   4.800000E+01   4.800000E+01   4.800000E+01   4.800000E+01   4.800000E+01
   4.800000E+01   4.800000E+01   4.800000E+01   4.800000E+01   4.800000E+01   4.800000E+01   4.800000E+01   4.800000E+01   4.800000E+01   4.800000E+01
   4.800000E+01   4.800000E+01   4.800000E+01   4.800000E+01   4.800000E+01   4.800000E+01   4.800000E+01   4.800000E+01   4.800000E+01   4.800000E+01
   4.800000E+01   4.800000E+01   4.800000E+01   4.800000E+01   4.800000E+01   4.800000E+01   4.800000E+01   4.800000E+01   4.800000E+01   4.800000E+01
   4.800000E+01   4.800000E+01   4.800000E+01   4.800000E+01   4.800000E+01   4.800000E+01   4.800000E+01   4.800000E+01   4.800000E+01   4.800000E+01
