# CHD package for  MODFLOW-2005, generated by Flopy.
        20
        20         0 # stress period 1
         2         1         1            47.0            47.0
         2         1        10            47.0            47.0
         2         2         1            47.0            47.0
         2         2        10            47.0            47.0
         2         3         1            47.0            47.0
         2         3        10            47.0            47.0
         2         4         1            47.0            47.0
         2         4        10            47.0            47.0
         2         5         1            47.0            47.0
         2         5        10            47.0            47.0
         2         6         1            47.0            47.0
         2         6        10            47.0            47.0
         2         7         1            47.0            47.0
         2         7        10            47.0            47.0
         2         8         1            47.0            47.0
         2         8        10            47.0            47.0
         2         9         1            47.0            47.0
         2         9        10            47.0            47.0
         2        10         1            47.0            47.0
         2        10        10            47.0            47.0
        20         0 # stress period 2
         2         1         1            48.0            48.0
         2         1        10            48.0            48.0
         2         2         1            48.0            48.0
         2         2        10            48.0            48.0
         2         3         1            48.0            48.0
         2         3        10            48.0            48.0
         2         4         1            48.0            48.0
         2         4        10            48.0            48.0
         2         5         1            48.0            48.0
         2         5        10            48.0            48.0
         2         6         1            48.0            48.0
         2         6        10            48.0            48.0
         2         7         1            48.0            48.0
         2         7        10            48.0            48.0
         2         8         1            48.0            48.0
         2         8        10            48.0            48.0
         2         9         1            48.0            48.0
         2         9        10            48.0            48.0
         2        10         1            48.0            48.0
         2        10        10            48.0            48.0
        20         0 # stress period 3
         2         1         1            48.0            48.0
         2         1        10            48.0            48.0
         2         2         1            48.0            48.0
         2         2        10            48.0            48.0
         2         3         1            48.0            48.0
         2         3        10            48.0            48.0
         2         4         1            48.0            48.0
         2         4        10            48.0            48.0
         2         5         1            48.0            48.0
         2         5        10            48.0            48.0
         2         6         1            48.0            48.0
         2         6        10            48.0            48.0
         2         7         1            48.0            48.0
         2         7        10            48.0            48.0
         2         8         1            48.0            48.0
         2         8        10            48.0            48.0
         2         9         1            48.0            48.0
         2         9        10            48.0            48.0
         2        10         1            48.0            48.0
         2        10        10            48.0            48.0
        20         0 # stress period 4
         2         1         1            48.0            48.0
         2         1        10            48.0            48.0
         2         2         1            48.0            48.0
         2         2        10            48.0            48.0
         2         3         1            48.0            48.0
         2         3        10            48.0            48.0
         2         4         1            48.0            48.0
         2         4        10            48.0            48.0
         2         5         1            48.0            48.0
         2         5        10            48.0            48.0
         2         6         1            48.0            48.0
         2         6        10            48.0            48.0
         2         7         1            48.0            48.0
         2         7        10            48.0            48.0
         2         8         1            48.0            48.0
         2         8        10            48.0            48.0
         2         9         1            48.0            48.0
         2         9        10            48.0            48.0
         2        10         1            48.0            48.0
         2        10        10            48.0            48.0
        20         0 # stress period 5
         2         1         1            48.0            48.0
         2         1        10            48.0            48.0
         2         2         1            48.0            48.0
         2         2        10            48.0            48.0
         2         3         1            48.0            48.0
         2         3        10            48.0            48.0
         2         4         1            48.0            48.0
         2         4        10            48.0            48.0
         2         5         1            48.0            48.0
         2         5        10            48.0            48.0
         2         6         1            48.0            48.0
         2         6        10            48.0            48.0
         2         7         1            48.0            48.0
         2         7        10            48.0            48.0
         2         8         1            48.0            48.0
         2         8        10            48.0            48.0
         2         9         1            48.0            48.0
         2         9        10            48.0            48.0
         2        10         1            48.0            48.0
         2        10        10            48.0            48.0
